
**** 11/11/15 17:25:06 ****** PSpice Lite (October 2012) ****** ID# 10813 ****

 ** Profile: "SCHEMATIC1-sim"  [ C:\Users\LUISALFONSO\Documents\GitHub\ALUTECH\Diseño\control_ventana-lluvia-pspicefiles\schematic1\s


 ****     CIRCUIT DESCRIPTION


******************************************************************************




** Creating circuit file "sim.cir" 
** WARNING: THIS AUTOMATICALLY GENERATED FILE MAY BE OVERWRITTEN BY SUBSEQUENT SIMULATIONS

*Libraries: 
* Profile Libraries :
* Local Libraries :
* From [PSPICE NETLIST] section of C:\Users\LUISALFONSO\AppData\Roaming\SPB_16.6\cdssetup\OrCAD_PSpice/16.6.0/PSpice.ini file:
.lib "nomd.lib" 

*Analysis directives: 
.TRAN  0 10ms 0 
.OPTIONS ADVCONV
.PROBE64 V(alias(*)) I(alias(*)) W(alias(*)) D(alias(*)) NOISE(alias(*)) 
.INC "..\SCHEMATIC1.net" 



**** INCLUDING SCHEMATIC1.net ****
* source CONTROL_VENTANA-LLUVIA
V_V1         N00104 0 5Vdc
X_U1         N02050 0 N01400 N01388 N00104 Relay_Spdt_Phy PARAMS:
+ R_coil=10
+ L_coil=5mH
+ R_open=100MEG
+ R_close=.05
+ turns=100
+ arm_mass=0.5
+ spr=40
+ minp=1
+ maxp=5
+ drag=1
+ lim_k=1e6
+ damping=1e3
V_V2         N00930 0 5Vdc
X_U3         N01388 0 N01660 N01648 N00104 Relay_Spdt_Phy PARAMS:
+ R_coil=10
+ L_coil=5mH
+ R_open=100MEG
+ R_close=.05
+ turns=100
+ arm_mass=0.5
+ spr=40
+ minp=1
+ maxp=5
+ drag=1
+ lim_k=1e6
+ damping=1e3
X_U4         N01400 0 N01660 N01648 0 Relay_Spdt_Phy PARAMS:
+ R_coil=10
+ L_coil=5mH
+ R_open=100MEG
+ R_close=.05
+ turns=100
+ arm_mass=0.5
+ spr=40
+ minp=1
+ maxp=5
+ drag=1
+ lim_k=1e6
+ damping=1e3
X_D1         N02479 N02149 awb1n4148 PARAMS:                
X_D2         N02313 N02153 awb1n4148 PARAMS:                
X_U5         N00104 N02050 Sw_tClose PARAMS: tClose=0 ttran=1u Rclosed=0.01
+  Ropen=1Meg
X_U6         N02153 N02309 Sw_tClose PARAMS: tClose=0 ttran=1u Rclosed=0.01
+  Ropen=1Meg
X_U7         N02149 N02305 Sw_tClose PARAMS: tClose=0 ttran=1u Rclosed=0.01
+  Ropen=1Meg
X_U8         N02305 0 N02479 0 N04998 Relay_Spdt_Phy PARAMS:
+ R_coil=10
+ L_coil=5mH
+ R_open=100MEG
+ R_close=.05
+ turns=100
+ arm_mass=0.5
+ spr=40
+ minp=1
+ maxp=5
+ drag=1
+ lim_k=1e6
+ damping=1e3
X_U9         N02309 0 N02313 0 N04980 Relay_Spdt_Phy PARAMS:
+ R_coil=10
+ L_coil=5mH
+ R_open=100MEG
+ R_close=.05
+ turns=100
+ arm_mass=0.5
+ spr=40
+ minp=1
+ maxp=5
+ drag=1
+ lim_k=1e6
+ damping=1e3
X_U11         N06621 0 N06687 N06679 N06523 Relay_Spdt_Phy PARAMS:
+ R_coil=10
+ L_coil=5mH
+ R_open=100MEG
+ R_close=.05
+ turns=100
+ arm_mass=0.5
+ spr=40
+ minp=1
+ maxp=5
+ drag=1
+ lim_k=1e6
+ damping=1e3
V_V3         N06523 0 5Vdc
X_U10         N06523 0 N06635 N06621 N06523 Relay_Spdt_Phy PARAMS:
+ R_coil=10
+ L_coil=5mH
+ R_open=100MEG
+ R_close=.05
+ turns=100
+ arm_mass=0.5
+ spr=40
+ minp=1
+ maxp=5
+ drag=1
+ lim_k=1e6
+ damping=1e3
X_U12         N06635 0 N06687 N06679 0 Relay_Spdt_Phy PARAMS:
+ R_coil=10
+ L_coil=5mH
+ R_open=100MEG
+ R_close=.05
+ turns=100
+ arm_mass=0.5
+ spr=40
+ minp=1
+ maxp=5
+ drag=1
+ lim_k=1e6
+ damping=1e3
R_R1         N06687 N06679  10k TC=0,0 

**** RESUMING sim.cir ****
.END

**** 11/11/15 17:25:06 ****** PSpice Lite (October 2012) ****** ID# 10813 ****

 ** Profile: "SCHEMATIC1-sim"  [ C:\Users\LUISALFONSO\Documents\GitHub\ALUTECH\Diseño\control_ventana-lluvia-pspicefiles\schematic1\s


 ****     Diode MODEL PARAMETERS


******************************************************************************




               X_D1.model22    X_D2.model22    
          IS    1.000000E-09    1.000000E-09 
           N    1.55            1.55         
          BV  120             120            
         IBV    1               1            
          RS     .5              .5          
          TT    5.000000E-09    5.000000E-09 
         CJO    1.850000E-12    1.850000E-12 
          VJ     .65             .65         
           M     .18             .18         


**** 11/11/15 17:25:06 ****** PSpice Lite (October 2012) ****** ID# 10813 ****

 ** Profile: "SCHEMATIC1-sim"  [ C:\Users\LUISALFONSO\Documents\GitHub\ALUTECH\Diseño\control_ventana-lluvia-pspicefiles\schematic1\s


 ****     Voltage Controlled Switch MODEL PARAMETERS


******************************************************************************




               X_U1.smod_no    X_U1.smod_nc    X_U3.smod_no    X_U3.smod_nc    
         RON     .05             .05             .05             .05         
        ROFF  100.000000E+06  100.000000E+06  100.000000E+06  100.000000E+06 
         VON    1               0               1               0            
        VOFF     .99             .01             .99             .01         


               X_U4.smod_no    X_U4.smod_nc    X_U5.Smod       X_U6.Smod       
         RON     .05             .05             .01             .01         
        ROFF  100.000000E+06  100.000000E+06    1.000000E+06    1.000000E+06 
         VON    1               0               1               1            
        VOFF     .99             .01            0               0            


               X_U7.Smod       X_U8.smod_no    X_U8.smod_nc    X_U9.smod_no    
         RON     .01             .05             .05             .05         
        ROFF    1.000000E+06  100.000000E+06  100.000000E+06  100.000000E+06 
         VON    1               1               0               1            
        VOFF    0                .99             .01             .99         


               X_U9.smod_nc    X_U11.smod_no   X_U11.smod_nc   X_U10.smod_no   
         RON     .05             .05             .05             .05         
        ROFF  100.000000E+06  100.000000E+06  100.000000E+06  100.000000E+06 
         VON    0               1               0               1            
        VOFF     .01             .99             .01             .99         


               X_U10.smod_nc   X_U12.smod_no   X_U12.smod_nc   
         RON     .05             .05             .05         
        ROFF  100.000000E+06  100.000000E+06  100.000000E+06 
         VON    0               1               0            
        VOFF     .01             .99             .01         


**** 11/11/15 17:25:06 ****** PSpice Lite (October 2012) ****** ID# 10813 ****

 ** Profile: "SCHEMATIC1-sim"  [ C:\Users\LUISALFONSO\Documents\GitHub\ALUTECH\Diseño\control_ventana-lluvia-pspicefiles\schematic1\s


 ****     INITIAL TRANSIENT SOLUTION       TEMPERATURE =   27.000 DEG C


******************************************************************************



 NODE   VOLTAGE     NODE   VOLTAGE     NODE   VOLTAGE     NODE   VOLTAGE


(N00104)    5.0000 (N00930)    5.0000 (N01388)    4.9751 (N01400) 500.0E-09     

(N01648) 2.500E-09 (N01660)    5.0000 (N02050) 50.00E-06 (N02149)    0.0000     

(N02153)    0.0000 (N02305)    0.0000 (N02309)    0.0000 (N02313)    0.0000     

(N02479)    0.0000 (N04980)    0.0000 (N04998)    0.0000 (N06523)    5.0000     

(N06621) 500.0E-09 (N06635)    4.9751 (N06679)    5.0000 (N06687) 25.00E-06     

(X_U5.3)    0.0000 (X_U6.3)    0.0000 (X_U7.3)    0.0000 (X_U1.a1) 50.00E-06    

(X_U1.a2) 2.965E-21                   (X_U1.v0) 21.32E-15                       

(X_U3.a1)    4.9751                   (X_U3.a2)-55.51E-18                       

(X_U3.v0) 20.69E-12                   (X_U4.a1) 500.0E-09                       

(X_U4.a2)-9.926E-24                   (X_U4.v0) 7.105E-15                       

(X_U8.a1)    0.0000                   (X_U8.a2)    0.0000                       

(X_U8.v0) 21.32E-15                   (X_U9.a1)    0.0000                       

(X_U9.a2)    0.0000                   (X_U9.v0) 49.74E-15                       

(X_U1.dis)-40.00E-06                  (X_U1.vel)-40.12E-15                      

(X_U10.a1)    5.0000                  (X_U10.a2)    0.0000                      

(X_U10.v0)-109.1E-12                  (X_U11.a1) 500.0E-09                      

(X_U11.a2)-58.93E-18                  (X_U11.v0) 7.105E-15                      

(X_U12.a1)    4.9751                  (X_U12.a2)    0.0000                      

(X_U12.v0)-44.45E-12                  (X_U3.dis)    1.1237                      

(X_U3.vel) 1.127E-09                  (X_U4.dis)-40.00E-06                      

(X_U4.vel)-40.12E-15                  (X_U8.dis)-40.00E-06                      

(X_U8.vel)-40.12E-15                  (X_U9.dis)-40.00E-06                      

(X_U9.vel)-40.12E-15                  (X_U10.dis)    1.1250                     

(X_U10.vel) 1.128E-09                 (X_U11.dis)-40.00E-06                     

(X_U11.vel)-40.12E-15                 (X_U12.dis)    1.1237                     

(X_U12.vel) 1.127E-09                 




    VOLTAGE SOURCE CURRENTS
    NAME         CURRENT

    V_V1        -4.975E-01
    V_V2         0.000E+00
    V_V3        -9.980E-01
    X_U1.v_winding   5.000E-06
    X_U3.v_winding   4.975E-01
    X_U4.v_winding   5.000E-08
    X_U5.V1      0.000E+00
    X_U6.V1      0.000E+00
    X_U7.V1      0.000E+00
    X_U8.v_winding   0.000E+00
    X_U9.v_winding   0.000E+00
    X_U11.v_winding   5.000E-08
    X_U10.v_winding   5.000E-01
    X_U12.v_winding   4.975E-01

    TOTAL POWER DISSIPATION   7.48E+00  WATTS

Reducing minimum delta to make the circuit converge.
Reducing minimum delta to make the circuit converge.
Reducing minimum delta to make the circuit converge.
Reducing minimum delta to make the circuit converge.
Reducing minimum delta to make the circuit converge.

ERROR(ORPSIM-15138): Convergence problem in transient analysis at Time =  23.21E-09.
         Time step =  399.3E-21, minimum allowable step size =  1.000E-18

  These voltages failed to converge:

    V(X_U1.v0)                =         0V  \     8.000V
    V(X_U3.v0)                =     48.00V  \     8.000V
    V(X_U4.v0)                =     32.00V  \    -8.000V
    V(X_U11.v0)               =     32.00V  \         0V
    V(X_U10.v0)               =    -16.00V  \    -8.000V
    V(X_U12.v0)               =         0V  \    -8.000V

ERROR(ORPSIM-15659): Discontinuing simulation due to convergence problem



  Last node voltages tried were:

 NODE   VOLTAGE     NODE   VOLTAGE     NODE   VOLTAGE     NODE   VOLTAGE


(N00104)    5.0000 (N00930)    5.0000 (N01388)    4.9751 (N01400) 500.0E-09     

(N01648) 2.500E-09 (N01660)    5.0000 (N02050)     .0440 (N02149)    0.0000     

(N02153)    0.0000 (N02305)    0.0000 (N02309)    0.0000 (N02313)    0.0000     

(N02479)    0.0000 (N04980)    0.0000 (N04998)    0.0000 (N06523)    5.0000     

(N06621) 500.0E-09 (N06635)    4.9751 (N06679)    5.0000 (N06687) 25.00E-06     

(X_U5.3)     .0232 (X_U6.3)     .0232 (X_U7.3)     .0232 (X_U1.a1)     .0440    

(X_U1.a2)     .0440                   (X_U1.v0)    0.0000                       

(X_U3.a1)    4.9751                   (X_U3.a2)-3.553E-15                       

(X_U3.v0)   48.0000                   (X_U4.a1) 500.0E-09                       

(X_U4.a2)-4.327E-15                   (X_U4.v0)   32.0000                       

(X_U8.a1)    0.0000                   (X_U8.a2)    0.0000                       

(X_U8.v0)    0.0000                   (X_U9.a1)    0.0000                       

(X_U9.a2)    0.0000                   (X_U9.v0)    0.0000                       

(X_U1.dis)-40.00E-06                  (X_U1.vel)-39.61E-15                      

(X_U10.a1)    5.0000                  (X_U10.a2) 5.551E-15                      

(X_U10.v0)  -16.0000                  (X_U11.a1) 500.0E-09                      

(X_U11.a2)-4.590E-15                  (X_U11.v0)   32.0000                      

(X_U12.a1)    4.9751                  (X_U12.a2) 888.2E-18                      

(X_U12.v0)    0.0000                  (X_U3.dis)    1.1237                      

(X_U3.vel) 1.127E-09                  (X_U4.dis)-40.00E-06                      

(X_U4.vel)-40.12E-15                  (X_U8.dis)-40.00E-06                      

(X_U8.vel)-40.12E-15                  (X_U9.dis)-40.00E-06                      

(X_U9.vel)-40.12E-15                  (X_U10.dis)    1.1250                     

(X_U10.vel) 1.128E-09                 (X_U11.dis)-40.00E-06                     

(X_U11.vel)-40.12E-15                 (X_U12.dis)    1.1237                     

(X_U12.vel) 1.127E-09                 


**** Interrupt ****
